/*--------------------------------*- C++ -*----------------------------------*\
| =========                 |                                                 |
| \\      /  F ield         | OpenFOAM: The Open Source CFD Toolbox           |
|  \\    /   O peration     | Version:  1.7.1                                 |
|   \\  /    A nd           | Web:      www.OpenFOAM.com                      |
|    \\/     M anipulation  |                                                 |
\*---------------------------------------------------------------------------*/
FoamFile
{
    version         2.0;
    format          ascii;
    class           dictionary;
    object          blockMeshDict;
}

// * * * * * * * * * * * * * * * * * * * * * * * * * * * * * * * * * * * * * //

convertToMeters 1;

vertices        
(
   (-7.8    -2.30    0.00)
   (-7.8     2.30    0.00)
   (-7.8     2.30    1.00)
   (-7.8    -2.30    1.00)

   (-2.90    -2.30    0.00)
   (-2.90     2.30    0.00)
   (-2.90     2.30    1.00)
   (-2.90    -2.30    1.00)

   (-1.70    -2.30    0.15)
   (-1.70     2.30    0.15)
   (-1.70     2.30    1.00)
   (-1.70    -2.30    1.00)

   ( 0.70    -2.30    0.15)
   ( 0.70     2.30    0.15)
   ( 0.70     2.30    1.00)
   ( 0.70    -2.30    1.00)

   ( 4.33    -2.30    0.35)
   ( 4.33     2.30    0.35)
   ( 4.33     2.30    1.00)
   ( 4.33    -2.30    1.00)

   ( 7.03    -2.30    0.35)
   ( 7.03     2.30    0.35)
   ( 7.03     2.30    1.00)
   ( 7.03    -2.30    1.00)
);

blocks          
(
    hex (0 4 5 1 3 7 6 2)   (40 40 15) simpleGrading (0.5 1 1)
    hex (4 8 9 5 7 11 10 6)   (10 40 15) simpleGrading (0.5 1 1)
    hex (8 12 13 9 11 15 14 10)   (30 40 15) simpleGrading (1 1 1)
    hex (12 16 17 13 15 19 18 14)   (30 40 15) simpleGrading (2 1 1)
    hex (16 20 21 17 19 23 22 18)   (10 40 15) simpleGrading (1 1 1)
);

edges           
(
);

boundary         
(
    inlet
    {
        type patch;
        faces
        (
            (0 3 2 1)
        );
    }
    outlet
    {
        type patch;
        faces
        (
            (20 21 22 23)
        );
    }
    wall1
    {
        type wall;
        faces
        (
            (0 1 5 4)
            (4 5 9 8)
            (8 9 13 12)
            (12 13 17 16)
            (16 17 21 20)
        );
    }
    atmosphere
    {
        type patch;
        faces
        (
            (3 7 6 2)
            (7 11 10 6)
            (11 15 14 10)
            (15 19 18 14)
            (19 23 22 18)
        );
    }
);

mergePatchPairs
(
);

// ************************************************************************* //
