/*---------------------------------------------------------------------------*\
| =========                 |                                                 |
| \\      /  F ield         | OpenFOAM: The Open Source CFD Toolbox           |
|  \\    /   O peration     | Version:  1.3                                   |
|   \\  /    A nd           | Web:      http://www.openfoam.org               |
|    \\/     M anipulation  |                                                 |
\*---------------------------------------------------------------------------*/
FoamFile
{
    version         2.0;
    format          ascii;
    location        "system";
    class           dictionary;
    object          controlDict;
}

// * * * * * * * * * * * * * * * * * * * * * * * * * * * * * * * * * * * * * //

application     olaDymFlow;

startFrom       startTime;

startTime       0;

stopAt          endTime;

endTime         2;

deltaT          0.00001;

writeControl    adjustableRunTime;

writeInterval   0.1;

purgeWrite      0;

writeFormat     ascii;

writePrecision  6;

writeCompression uncompressed;

timeFormat      general;

timePrecision   6;

runTimeModifiable true;

adjustTimeStep  yes;

maxCo           0.9;
maxAlphaCo		0.9;

maxDeltaT       0.05;
libs
(
    "libOpenFOAM.so"
);

functions
{
    //#include "readFields"
    //#includeFunc Q
    //#include "freeSurface"
    //#include "pressureProbes"
}


// ************************************************************************* //
