/*---------------------------------------------------------------------------*\
| =========                 |                                                 |
| \\      /  F ield         | OpenFOAM: The Open Source CFD Toolbox           |
|  \\    /   O peration     | Version:  1.3                                   |
|   \\  /    A nd           | Web:      http://www.openfoam.org               |
|    \\/     M anipulation  |                                                 |
\*---------------------------------------------------------------------------*/
FoamFile
{
    version     2.0;
    format      ascii;
    class       dictionary;
    object      topoSetDict;
}
// * * * * * * * * * * * * * * * * * * * * * * * * * * * * * * * * * * * * * //

actions
(
    {
        name    underflapFace;
        type    faceSet;
        action  new;
        source  zoneToCell;
        sourceInfo
        {
            name     bottomblock;
            //option  all;
        }
    }

    /*{
        name    underflapFace;
        type    faceSet;
        action  subset;
        source  normalToFace;
        sourceInfo
        {
            normal  (0 0 1);    // Vector
            cos     0.3;        // Tolerance (max cos of angle)
        }
    }*/

    {
        name    underflapFace;
        type    faceZoneSet;
        action  new;
        source  setToFaceZone;
        sourceInfo
        {
            faceSet     underflapFace;
        }
    }
);